Circuit: * C:\Users\Usuario\Desktop\SintesisDeRedesActivasGit\Laboratorio N°1\Laboratorio1-CircuitoI.asc

WARNING: Less than two connections to node V1.  This node is used by V1.
Direct Newton iteration for .op point succeeded.

Date: Tue Dec 05 12:38:17 2023
Total elapsed time: 0.235 seconds.

tnom = 27
temp = 27
method = modified trap
totiter = 16039
traniter = 16036
tranpoints = 8019
accept = 4823
rejected = 3196
matrix size = 12
fillins = 1
solver = Normal
Matrix Compiler1: 580 bytes object code size  0.1/0.1/[0.1]
Matrix Compiler2: 876 bytes object code size  0.1/0.1/[0.1]

