Circuit: * C:\Users\Usuario\Desktop\SintesisDeRedesActivasGit\Laboratorio N°1\Laboratorio1-CircuitoI.asc

Direct Newton iteration for .op point succeeded.

Date: Thu Oct 05 16:42:13 2023
Total elapsed time: 0.149 seconds.

tnom = 27
temp = 27
method = modified trap
totiter = 16039
traniter = 16036
tranpoints = 8019
accept = 4823
rejected = 3196
matrix size = 12
fillins = 2
solver = Normal
Matrix Compiler1: 652 bytes object code size  0.1/0.1/[0.1]
Matrix Compiler2: off  [0.1]/0.1/0.1

